!===============================================================================
! MATERIAL PROPERTIES
!===============================================================================

/PREP7

MPTGEN,1,100,270,30

!-------------------------------------------------------------------------------
! GRAPHITE
!-------------------------------------------------------------------------------

! Assign unique number
*SET,graphite,1

! Heat capacity joule/(kilogram*kelvin)
MP,C,graphite,2.26975E3
*DO,index,1,100
	T=270+(index-1)*30
	cp=2.26975E3
	cp=cp-6.01593E12/T**4
	cp=cp+6.66995E10/T**3
	cp=cp-1.81914E8/T**2
	cp=cp-3.77953E5/T
	cp=cp-1.016E-2*T
	MPDATA,C,graphite,index,cp
*ENDDO
! MP,C,graphite,34.27,2.72,-0.00096 ! Enweani
! MP,C,graphite,310.5,1.7 ! Antou

! Thermal conductivity watt/(meter*kelvin)
MP,KXX,graphite,123,-0.0699,0.0000155

! Electrical resistivity ohm*meter
MP,RSVX,graphite,+1.7E-5,-1.87E-8,+1.26E-11,-2.44E-15

! Density kilogram/(meter**3)
MP,DENS,graphite,1904,-0.0141

! Emisivity
MP,EMIS,graphite,0.8
